<?xml version="1.0" encoding="UTF-8"?>

<!-- generated on 03/06/17 15:22:21 by SUMO polyconvert Version 0.28.0
<?xml version="1.0" encoding="UTF-8"?>

<configuration xmlns:xsi="http://www.w3.org/2001/XMLSchema-instance" xsi:noNamespaceSchemaLocation="http://sumo.dlr.de/xsd/polyconvertConfiguration.xsd">

    <input>
        <net-file value="C:\Users\ewanyiq\AppData\Roaming\Microsoft\Windows\Start%20Menu\Programs\SUMO\2017-03-06-15-22-17\osm.net.xml"/>
        <osm-files value="osm_bbox.osm.xml"/>
        <osm.keep-full-type value="true"/>
        <type-file value="C:\Program%20Files%20(x86)\DLR\Sumo\data\typemap\osmPolyconvert.typ.xml"/>
    </input>

    <output>
        <output-file value="C:\Users\ewanyiq\AppData\Roaming\Microsoft\Windows\Start%20Menu\Programs\SUMO\2017-03-06-15-22-17\osm.poly.xml"/>
    </output>

    <processing>
        <poi-layer-offset value="5"/>
    </processing>

    <report>
        <verbose value="true"/>
    </report>

</configuration>
-->

<additional xmlns:xsi="http://www.w3.org/2001/XMLSchema-instance" xsi:noNamespaceSchemaLocation="http://sumo.dlr.de/xsd/additional_file.xsd">
  <busStop id="busstop1" lane='-70004372#0_0' startPos="0" endPos="20" />
  <busStop id="busstop2" lane='22282912#1_0' startPos="70" endPos="80" />
  <busStop id="busstop3" lane='-156942328#3_0' startPos="0" endPos="20" />

<!--
    <vType id="BUS" accel="2.6" decel="4.5" sigma="0" length="12" minGap="3" maxSpeed="70" color="1,1,0" guiShape="bus"/>


   <vehicle id="0" type="BUS" depart="20" color="1,1,0">
        <route edges="70004372#0 22282912#1 -156942328#3 -156942328#0 "/>
        <stop busStop="busstop1" duration="1"/>
        <stop busStop="busstop2" duration="1"/>
    </vehicle>
  -->
    <location netOffset="-666477.71,-6584529.42" convBoundary="-2606.33,0.00,4613.28,8114.95" origBoundary="17.888994,59.364689,18.010545,59.440078" projParameter="+proj=utm +zone=33 +ellps=WGS84 +datum=WGS84 +units=m +no_defs"/>
    <poly id="119559057" type="building.yes" color="255,230,230" fill="1" layer="-1.00" shape="1679.16,3766.55 1698.62,3776.13 1707.87,3757.43 1700.46,3753.78 1702.39,3749.86 1690.34,3743.93 1679.16,3766.55"/>
    <poly id="124873908" type="landuse.residential" color="235,235,227" fill="1" layer="-3.00" shape="1728.78,4787.20 1721.28,4804.04 1713.21,4799.80 1683.92,4839.93 1760.19,4875.20 1963.66,4959.13 2007.64,4959.23 2026.86,4933.08 2087.90,4955.23 2240.19,4853.39 2259.03,4831.67 2218.33,4788.22 2289.32,4719.47 2344.59,4740.89 2375.86,4666.06 2385.25,4644.31 2383.36,4612.55 2321.90,4616.94 2264.57,4628.80 2193.40,4637.58 2050.33,4661.09 1941.30,4680.67 1921.12,4684.99 1795.87,4711.82 1777.63,4720.69 1761.82,4725.47 1723.22,4777.33 1728.78,4787.20"/>
    <poly id="135401954" type="building.yes" color="255,230,230" fill="1" layer="-1.00" shape="1375.57,4564.14 1388.31,4581.88 1396.01,4592.37 1414.13,4588.35 1393.47,4560.51 1375.57,4564.14"/>
    <poly id="138774257" type="building.commercial" color="255,230,230" fill="1" layer="-1.00" shape="592.95,3937.75 582.61,3953.26 620.37,3981.14 594.66,4015.83 572.06,4048.51 580.41,4054.42 596.83,4066.32 612.89,4077.76 615.50,4074.29 635.26,4088.78 618.31,4112.75 614.01,4109.61 609.60,4115.65 613.67,4118.34 595.36,4144.21 593.43,4143.58 582.62,4158.05 566.12,4181.22 558.30,4192.84 519.09,4245.22 548.83,4267.12 553.83,4270.80 571.93,4282.28 622.10,4243.67 625.23,4241.24 626.49,4242.09 634.73,4230.67 633.01,4228.96 648.99,4207.69 650.33,4208.69 661.12,4194.37 659.70,4193.30 729.90,4096.38 763.39,4122.20 775.75,4127.72 783.93,4116.45 803.42,4089.60 794.67,4083.00 806.06,4062.59 831.13,4017.69 776.41,3977.92 746.90,3957.37 731.14,3960.57 693.79,4009.20 671.87,3993.64 592.95,3937.75"/>
    <poly id="138774257#1" type="shop.mall" color="237,199,255" fill="1" layer="-1.00" shape="592.95,3937.75 582.61,3953.26 620.37,3981.14 594.66,4015.83 572.06,4048.51 580.41,4054.42 596.83,4066.32 612.89,4077.76 615.50,4074.29 635.26,4088.78 618.31,4112.75 614.01,4109.61 609.60,4115.65 613.67,4118.34 595.36,4144.21 593.43,4143.58 582.62,4158.05 566.12,4181.22 558.30,4192.84 519.09,4245.22 548.83,4267.12 553.83,4270.80 571.93,4282.28 622.10,4243.67 625.23,4241.24 626.49,4242.09 634.73,4230.67 633.01,4228.96 648.99,4207.69 650.33,4208.69 661.12,4194.37 659.70,4193.30 729.90,4096.38 763.39,4122.20 775.75,4127.72 783.93,4116.45 803.42,4089.60 794.67,4083.00 806.06,4062.59 831.13,4017.69 776.41,3977.92 746.90,3957.37 731.14,3960.57 693.79,4009.20 671.87,3993.64 592.95,3937.75"/>
    <poly id="149354342" type="landuse.forest" color="140,196,107" fill="1" layer="-3.00" shape="463.35,5462.26 490.48,5431.69 526.31,5404.26 598.80,5347.06 727.42,5270.32 746.97,5253.05 818.33,5216.89 857.91,5182.57 858.15,5174.50 879.94,5162.08 910.29,5140.11 915.68,5136.25 957.59,5117.70 954.81,5109.71 929.91,5121.09 896.67,5136.91 855.90,5162.50 850.91,5158.02 856.64,5150.71 905.83,5120.93 937.95,5104.70 990.14,5076.27 993.42,5084.64 1031.74,5062.44 1089.54,5030.03 1105.93,5029.98 1208.01,4969.67 1212.32,4975.65 1335.58,4911.84 1335.00,4900.08 1332.17,4874.39 1335.83,4853.85 1376.23,4823.08 1476.83,4748.41 1480.15,4735.46 1468.95,4731.67 1369.32,4806.94 1299.17,4860.19 1203.11,4931.06 1091.39,5007.11 990.70,5065.61 881.65,5124.98 767.39,5192.06 710.32,5227.58 701.93,5242.06 650.27,5272.61 505.56,5370.95 479.43,5388.53 444.97,5408.78 425.90,5412.50 383.40,5447.82 361.80,5476.41 343.67,5505.10 320.71,5591.99 313.86,5629.72 322.16,5628.27 329.45,5602.36 333.10,5596.90 342.22,5572.29 353.10,5558.27 386.62,5533.48 395.86,5524.46 440.54,5548.34 461.73,5510.32 447.27,5494.43 443.08,5468.25 442.83,5466.72 463.35,5462.26"/>
    <poly id="149356032" type="natural.wood" color="140,196,107" fill="1" layer="-4.00" shape="1293.25,3697.15 1352.14,3684.13 1331.03,3675.89 1310.96,3656.36 1287.51,3630.01 1249.20,3610.79 1196.78,3557.02 1176.99,3561.86 1170.75,3597.94 1175.62,3626.49 1182.83,3675.99 1160.85,3685.21 1163.31,3696.44 1184.15,3703.30 1178.56,3732.89 1145.38,3743.15 1131.81,3755.48 1135.00,3761.05 1147.42,3744.34 1207.78,3731.06 1212.21,3752.40 1225.72,3749.55 1222.30,3727.15 1240.94,3723.62 1248.74,3778.49 1264.55,3774.78 1255.06,3727.47 1297.27,3718.07 1293.25,3697.15"/>
    <poly id="149356036" type="leisure.park" color="207,245,201" fill="1" layer="-2.00" shape="1135.00,3761.05 1137.72,3766.82 1198.60,3803.82 1188.20,3817.97 1179.47,3822.46 1169.20,3820.17 1122.32,3783.68 1113.32,3766.53 1109.50,3721.91 1099.68,3693.92 1076.13,3662.88 1094.72,3608.28 1129.01,3553.96 1141.29,3534.52 1165.35,3533.32 1196.78,3557.02 1176.99,3561.86 1170.75,3597.94 1175.62,3626.49 1182.83,3675.99 1160.85,3685.21 1163.31,3696.44 1184.15,3703.30 1178.56,3732.89 1145.38,3743.15 1131.81,3755.48 1135.00,3761.05"/>
    <poly id="149481976" type="building.yes" color="255,230,230" fill="1" layer="-1.00" shape="529.08,3568.56 537.49,3574.87 542.69,3567.64 545.65,3569.75 543.84,3572.72 558.32,3583.25 556.04,3586.50 553.68,3584.71 547.87,3592.07 555.97,3598.52 561.47,3591.46 574.19,3600.40 576.28,3597.75 579.68,3600.18 574.35,3607.10 582.76,3613.41 590.24,3603.08 586.40,3600.18 591.75,3593.10 583.92,3587.28 580.37,3591.68 565.30,3580.51 567.41,3577.72 550.58,3565.10 554.11,3560.55 545.58,3554.06 540.71,3560.85 536.70,3558.24 529.08,3568.56"/>
    <poly id="150901306" type="amenity.school" color="237,199,199" fill="1" layer="-1.00" shape="445.45,4039.29 522.10,3935.27 418.72,3864.26 395.56,3872.44 370.88,3918.48 390.58,3997.29 404.51,4040.84 415.51,4049.00 445.45,4039.29"/>
    <poly id="153529728" type="building.yes" color="255,230,230" fill="1" layer="-1.00" shape="566.12,4181.22 571.78,4185.32 588.30,4162.28 582.62,4158.05 566.12,4181.22"/>
    <poly id="153529730" type="building.yes" color="255,230,230" fill="1" layer="-1.00" shape="606.96,3911.49 620.55,3921.04 624.46,3915.49 639.10,3925.77 664.50,3889.73 651.43,3880.56 649.57,3883.18 644.97,3879.96 642.61,3883.30 646.73,3886.19 634.19,3903.99 618.86,3893.22 623.18,3887.09 607.08,3875.78 609.16,3872.84 600.49,3866.76 594.71,3874.96 597.72,3877.08 595.85,3879.73 587.71,3874.00 580.61,3884.08 606.43,3902.23 603.67,3906.15 608.39,3909.47 606.96,3911.49"/>
    <poly id="153529731" type="landuse.grass" color="194,194,130" fill="1" layer="-3.00" shape="496.99,4184.35 492.69,4185.05 482.75,4199.71 483.78,4200.52 487.62,4196.43 513.73,4216.30 497.29,4243.13 467.58,4273.95 469.93,4275.86 494.96,4250.94 513.74,4222.69 520.93,4212.05 521.84,4208.59 519.87,4201.50 496.99,4184.35"/>
    <poly id="153529733" type="amenity.parking" color="184,184,179" fill="1" layer="-1.00" shape="386.26,4330.01 406.99,4319.81 447.06,4292.97 461.98,4279.77 467.58,4273.95 497.29,4243.13 513.73,4216.30 487.62,4196.43 483.78,4200.52 482.75,4199.71 467.41,4188.07 446.55,4221.71 431.97,4240.82 404.75,4270.39 387.52,4287.59 368.58,4298.63 366.99,4296.73 355.13,4306.26 364.80,4321.88 368.59,4319.18 378.66,4329.04 386.26,4330.01"/>
    <poly id="153529734" type="building.yes" color="255,230,230" fill="1" layer="-1.00" shape="595.36,4144.21 593.43,4143.58 582.62,4158.05 588.30,4162.28 648.99,4207.69 650.33,4208.69 661.12,4194.37 659.70,4193.30 595.36,4144.21"/>
    <poly id="153529737" type="building.yes" color="255,230,230" fill="1" layer="-1.00" shape="566.12,4181.22 558.30,4192.84 625.23,4241.24 626.49,4242.09 634.73,4230.67 633.01,4228.96 571.78,4185.32 566.12,4181.22"/>
    <poly id="159910059" type="building.yes" color="255,230,230" fill="1" layer="-1.00" shape="979.73,3447.88 997.19,3450.66 994.84,3463.06 990.07,3462.26 974.86,3473.44 972.75,3489.94 987.02,3510.54 979.63,3549.96 975.08,3549.30 942.75,3587.20 938.24,3591.61 917.04,3616.29 889.05,3591.78 881.11,3585.81 877.12,3582.47 908.64,3544.68 935.04,3566.53 962.33,3534.27 966.53,3511.77 955.47,3495.02 951.70,3494.37 957.29,3462.35 961.52,3462.97 979.15,3450.82 979.73,3447.88"/>
    <poly id="159916518" type="landuse.grass" color="194,194,130" fill="1" layer="-3.00" shape="979.81,3664.38 985.54,3669.51 993.67,3689.05 989.31,3710.01 961.81,3756.57 940.66,3781.74 934.41,3760.15 911.36,3767.43 893.43,3773.10 847.80,3792.97 807.25,3811.53 792.89,3800.87 797.29,3787.68 826.35,3751.21 839.15,3744.62 871.18,3699.91 898.84,3677.84 923.43,3666.75 956.54,3659.54 979.81,3664.38"/>
    <poly id="159916525" type="landuse.grass" color="194,194,130" fill="1" layer="-3.00" shape="1075.00,3712.29 1087.44,3722.28 1093.37,3733.04 1093.16,3751.45 1094.59,3769.04 1100.94,3787.44 1110.88,3800.51 1122.70,3812.61 1150.44,3831.94 1157.74,3837.62 1158.96,3840.86 1159.05,3850.90 1156.49,3855.47 1050.17,3778.63 998.58,3786.20 992.12,3798.58 939.96,3875.84 931.74,3873.24 925.82,3876.72 926.95,3893.95 858.92,3994.39 858.92,3977.31 862.55,3957.87 876.40,3923.80 901.85,3874.82 979.30,3748.09 990.64,3735.03 1007.80,3721.18 1031.00,3710.34 1046.51,3707.98 1062.31,3709.30 1075.00,3712.29"/>
    <poly id="159916527" type="landuse.grass" color="194,194,130" fill="1" layer="-3.00" shape="881.11,3585.81 878.67,3596.26 889.21,3609.67 893.98,3619.01 900.22,3622.64 916.60,3621.38 943.50,3616.64 959.28,3608.05 970.49,3595.92 969.17,3594.80 964.69,3599.62 959.61,3600.76 942.75,3587.20 938.24,3591.61 917.04,3616.29 889.05,3591.78 881.11,3585.81"/>
    <poly id="159916532" type="landuse.grass" color="194,194,130" fill="1" layer="-3.00" shape="988.53,3725.82 995.37,3712.57 998.75,3705.11 1000.20,3696.65 1005.74,3702.22 1011.60,3705.97 1016.89,3708.81 1006.60,3713.67 994.80,3721.98 988.53,3725.82"/>
    <poly id="159916534" type="landuse.grass" color="194,194,130" fill="1" layer="-3.00" shape="1007.86,3648.94 1016.23,3642.61 1026.26,3639.51 1034.46,3639.61 1044.42,3642.93 1052.65,3649.44 1056.85,3655.53 1060.01,3665.53 1059.55,3676.00 1057.78,3681.47 1052.00,3690.22 1042.53,3696.96 1032.36,3699.56 1018.98,3697.56 1010.02,3692.09 1003.47,3683.90 1001.13,3678.33 999.83,3667.92 1002.18,3657.70 1007.86,3648.94"/>
    <poly id="159916536" type="landuse.grass" color="194,194,130" fill="1" layer="-3.00" shape="908.32,3642.94 908.06,3638.51 911.54,3632.42 915.75,3630.32 925.57,3628.93 939.24,3626.80 953.93,3622.12 963.95,3616.33 974.14,3606.73 979.90,3597.09 984.67,3585.88 988.34,3572.92 984.95,3595.01 994.44,3596.64 1003.11,3588.41 1008.11,3558.00 1008.82,3554.30 1012.55,3554.95 1028.12,3465.86 1011.09,3462.90 1008.20,3461.16 1010.12,3455.77 1015.08,3453.86 1020.86,3454.26 1026.79,3458.18 1030.89,3465.37 1033.62,3479.49 1032.66,3508.08 1036.35,3519.33 1048.28,3530.55 1054.91,3541.02 1053.00,3558.46 1048.05,3577.12 1043.95,3590.34 1039.44,3606.12 1032.30,3617.66 1023.09,3627.47 1009.62,3635.55 996.31,3639.83 972.57,3642.13 962.31,3643.04 942.01,3646.86 922.81,3651.48 915.73,3651.34 911.70,3649.33 908.32,3642.94"/>
    <poly id="159916539" type="landuse.grass" color="194,194,130" fill="1" layer="-3.00" shape="968.95,3651.41 969.35,3649.30 986.57,3648.07 997.49,3645.82 993.62,3652.36 991.22,3658.19 989.03,3662.96 983.17,3657.37 975.86,3653.86 968.95,3651.41"/>
    <poly id="159916542" type="landuse.grass" color="194,194,130" fill="1" layer="-3.00" shape="1055.91,3698.97 1061.39,3692.35 1066.25,3684.34 1069.56,3676.74 1095.21,3711.96 1091.63,3713.78 1086.20,3708.82 1078.03,3704.04 1067.34,3700.98 1055.91,3698.97"/>
    <poly id="159946580" type="natural.wood" color="140,196,107" fill="1" layer="-4.00" shape="423.21,3895.34 418.05,3891.45 416.15,3889.70 415.35,3887.23 418.26,3886.59 428.67,3885.83 436.24,3890.43 440.01,3898.21 447.12,3899.60 443.80,3909.34 432.64,3903.06 429.74,3899.43 432.87,3894.24 427.86,3893.87 423.21,3895.34"/>
    <poly id="159946583" type="natural.wood" color="140,196,107" fill="1" layer="-4.00" shape="815.90,3684.51 821.81,3695.73 817.55,3705.75 808.40,3703.50 803.65,3714.25 818.49,3726.91 829.25,3720.43 840.64,3707.84 844.32,3705.09 844.27,3701.76 837.43,3695.36 821.56,3681.86 817.19,3680.60 815.90,3684.51"/>
    <poly id="159946585" type="natural.wood" color="140,196,107" fill="1" layer="-4.00" shape="423.81,3937.08 430.33,3951.83 445.83,3942.61 444.48,3938.59 448.29,3931.76 438.92,3926.47 434.37,3932.67 428.21,3934.07 424.86,3934.08 423.81,3937.08"/>
    <poly id="159946589" type="landuse.grass" color="194,194,130" fill="1" layer="-3.00" shape="869.15,3604.66 882.51,3623.37 885.57,3629.90 893.53,3651.26 896.09,3658.83 895.72,3662.32 894.13,3663.77 884.30,3670.33 870.64,3681.15 861.89,3689.44 856.56,3696.22 854.62,3695.21 879.72,3665.57 882.99,3664.04 885.62,3664.61 889.03,3662.03 889.75,3659.46 891.58,3657.41 890.74,3650.99 889.57,3649.72 885.07,3637.79 880.57,3629.22 876.26,3621.11 870.19,3613.38 866.84,3608.82 866.20,3606.04 869.15,3604.66"/>
    <poly id="159946591" type="natural.wood" color="140,196,107" fill="1" layer="-4.00" shape="860.41,3602.44 866.24,3616.55 882.63,3642.54 886.88,3651.88 884.65,3657.56 876.30,3664.95 873.96,3664.86 873.23,3661.92 882.23,3653.50 873.18,3645.94 873.82,3643.84 853.22,3628.15 849.87,3624.66 851.03,3608.87 857.04,3601.51 860.41,3602.44"/>
    <poly id="159946593" type="amenity.parking" color="184,184,179" fill="1" layer="-1.00" shape="818.49,3726.91 789.69,3704.88 752.38,3754.29 782.01,3776.99 818.49,3726.91"/>
    <poly id="159946595" type="amenity.parking" color="184,184,179" fill="1" layer="-1.00" shape="844.22,3698.04 881.28,3653.21 877.68,3650.23 873.37,3655.45 850.52,3636.62 817.76,3676.25 844.22,3698.04"/>
    <poly id="159946596" type="natural.wood" color="140,196,107" fill="1" layer="-4.00" shape="401.88,3991.67 400.72,3993.91 411.80,4005.36 409.86,4011.20 412.69,4019.55 410.41,4022.95 398.05,4026.51 402.43,4037.83 416.89,4038.31 415.13,4030.01 417.57,4019.62 431.49,4022.06 436.40,4014.66 429.96,4011.95 433.26,4006.31 414.51,3995.73 414.52,3988.73 407.77,3985.99 401.88,3991.67"/>
    <poly id="159946599" type="natural.wood" color="140,196,107" fill="1" layer="-4.00" shape="456.62,3909.15 453.67,3899.88 440.42,3885.74 423.86,3877.25 416.34,3878.44 413.62,3877.87 409.10,3879.95 403.71,3891.58 393.15,3885.64 388.94,3894.58 393.42,3896.61 395.04,3894.55 403.99,3895.70 397.85,3903.35 396.10,3915.30 399.95,3924.91 410.81,3934.52 418.98,3935.95 419.92,3949.08 406.07,3945.27 404.18,3946.56 399.04,3942.07 391.84,3939.47 383.75,3929.22 382.15,3917.12 380.15,3910.48 384.24,3907.62 388.04,3911.29 390.39,3906.52 385.46,3904.17 383.62,3897.55 381.31,3893.34 376.67,3889.17 392.00,3868.99 395.28,3853.46 414.74,3866.34 434.73,3866.01 453.97,3879.34 459.25,3889.63 468.00,3903.56 464.43,3904.92 463.64,3908.84 456.62,3909.15"/>
    <poly id="159946600" type="natural.wood" color="140,196,107" fill="1" layer="-4.00" shape="387.84,3953.75 403.77,3969.53 413.28,3975.28 420.70,3977.97 424.82,3970.62 427.87,3966.30 424.01,3963.73 424.17,3959.93 418.71,3955.73 403.83,3950.96 401.10,3947.04 396.54,3946.83 391.29,3948.43 390.99,3944.76 386.15,3943.79 382.89,3938.16 378.92,3924.59 378.65,3913.46 378.22,3901.28 373.12,3902.87 371.70,3908.44 373.98,3938.53 383.24,3944.12 387.84,3953.75"/>
    <poly id="161440546" type="building.commercial" color="255,230,230" fill="1" layer="-1.00" shape="1361.45,3708.42 1349.48,3710.02 1354.50,3734.31 1388.61,3756.22 1401.84,3753.46 1413.11,3760.66 1421.16,3744.27 1408.99,3736.73 1398.70,3737.62 1370.13,3718.85 1368.30,3712.08 1361.45,3708.42"/>
    <poly id="164734376" type="building.yes" color="255,230,230" fill="1" layer="-1.00" shape="724.04,4184.69 720.25,4182.04 715.37,4188.97 719.16,4191.62 724.04,4184.69"/>
    <poly id="191111147" type="leisure.pitch" color="207,245,201" fill="1" layer="-2.00" shape="465.01,3666.41 489.74,3658.81 485.60,3645.38 460.10,3653.09 465.01,3666.41"/>
    <poly id="191111147#1" type="sport.basketball" color="79,230,125" fill="1" layer="-2.00" shape="465.01,3666.41 489.74,3658.81 485.60,3645.38 460.10,3653.09 465.01,3666.41"/>
    <poly id="19526984" type="building.yes" color="255,230,230" fill="1" layer="-1.00" shape="1310.70,4449.89 1325.63,4460.40 1318.35,4471.02 1301.78,4459.96 1293.56,4472.14 1326.55,4497.37 1360.74,4542.92 1377.58,4530.38 1379.54,4528.92 1389.04,4522.28 1425.80,4545.81 1428.29,4540.63 1448.16,4553.03 1467.75,4524.66 1449.20,4512.69 1465.35,4491.24 1416.31,4455.92 1419.48,4451.95 1346.91,4400.55 1310.70,4449.89"/>
    <poly id="199825851" type="building.apartments" color="255,230,230" fill="1" layer="-1.00" shape="435.94,3862.37 446.81,3870.36 449.30,3866.97 456.95,3872.59 464.02,3863.02 459.26,3859.53 472.20,3842.02 468.19,3839.08 477.59,3826.35 481.27,3829.05 496.93,3807.84 492.62,3804.67 497.35,3798.25 489.42,3792.43 485.83,3797.28 478.38,3791.82 473.44,3798.51 480.01,3803.34 481.66,3801.10 486.54,3804.70 475.51,3819.64 470.68,3816.09 472.43,3813.71 465.70,3808.77 460.30,3816.09 467.50,3821.38 460.42,3830.98 452.34,3825.05 446.25,3833.31 454.94,3839.70 457.14,3836.70 460.27,3839.01 449.01,3854.29 451.56,3856.16 450.47,3857.65 449.26,3859.27 442.10,3854.01 435.94,3862.37"/>
    <poly id="199825853" type="building.apartments" color="255,230,230" fill="1" layer="-1.00" shape="425.48,3852.62 431.73,3843.75 424.16,3838.43 425.30,3836.82 426.38,3835.29 429.64,3837.58 436.03,3828.51 427.48,3822.50 421.39,3831.15 408.90,3822.38 407.00,3825.09 405.20,3823.83 403.57,3822.68 408.89,3815.14 400.98,3809.58 393.60,3820.05 397.13,3822.52 391.97,3829.84 399.30,3834.99 402.66,3830.21 417.47,3840.63 414.47,3844.89 425.48,3852.62"/>
    <poly id="199825856" type="building.apartments" color="255,230,230" fill="1" layer="-1.00" shape="499.62,3860.08 501.98,3857.00 500.14,3855.59 510.13,3842.54 515.41,3846.56 518.03,3843.15 512.50,3838.93 523.59,3824.44 525.41,3825.83 529.28,3820.78 516.31,3810.89 486.38,3849.98 499.62,3860.08"/>
    <poly id="199825857" type="building.apartments" color="255,230,230" fill="1" layer="-1.00" shape="500.90,3906.97 506.29,3899.40 499.58,3894.63 502.33,3890.77 504.93,3892.62 510.98,3884.12 503.06,3878.51 497.15,3886.82 484.38,3877.75 482.50,3880.41 479.55,3878.32 485.27,3870.27 476.48,3864.03 468.84,3874.74 473.26,3877.87 467.93,3885.35 475.47,3890.70 478.97,3885.78 493.47,3896.08 490.81,3899.81 500.90,3906.97"/>
    <poly id="199825858" type="building.apartments" color="255,230,230" fill="1" layer="-1.00" shape="521.86,3777.49 531.37,3764.22 467.10,3718.27 457.42,3731.77 463.32,3735.99 465.33,3733.18 488.03,3749.40 483.86,3755.21 487.60,3757.87 491.46,3752.49 520.61,3773.32 519.05,3775.48 521.86,3777.49"/>
    <poly id="199825861" type="building.apartments" color="255,230,230" fill="1" layer="-1.00" shape="549.73,3757.08 556.01,3748.34 548.76,3743.16 551.02,3740.00 554.21,3742.29 560.57,3733.44 551.40,3726.87 545.62,3734.90 528.19,3722.42 533.62,3714.86 525.55,3709.08 519.48,3717.52 522.11,3719.40 520.30,3721.92 505.47,3711.29 508.34,3707.28 510.55,3708.86 515.80,3701.55 508.56,3696.35 502.56,3704.70 490.19,3695.83 493.57,3691.12 486.43,3686.01 481.01,3693.57 476.81,3690.57 469.91,3700.19 477.90,3705.90 483.36,3698.28 486.45,3700.49 483.88,3704.07 497.74,3713.98 495.16,3717.57 517.45,3733.52 520.30,3729.56 541.96,3745.06 538.90,3749.33 549.73,3757.08"/>
    <poly id="199825868" type="building.apartments" color="255,230,230" fill="1" layer="-1.00" shape="422.99,3804.76 425.28,3801.65 423.13,3800.08 433.08,3786.57 438.60,3790.61 441.26,3787.00 436.30,3783.35 446.82,3769.06 448.56,3770.33 452.54,3764.92 438.88,3754.90 409.47,3794.86 422.99,3804.76"/>
    <poly id="199825869" type="building.apartments" color="255,230,230" fill="1" layer="-1.00" shape="384.32,3692.88 394.80,3678.30 451.99,3719.26 441.70,3733.59 437.65,3730.69 439.02,3728.79 418.12,3713.83 414.30,3719.12 410.77,3716.59 415.06,3710.62 391.52,3693.75 389.49,3696.57 384.32,3692.88"/>
    <poly id="199825872" type="building.apartments" color="255,230,230" fill="1" layer="-1.00" shape="512.05,3917.90 522.79,3925.70 525.06,3922.60 532.60,3928.09 539.37,3918.81 534.89,3915.54 548.29,3897.17 544.81,3894.63 553.46,3882.78 557.16,3885.47 573.36,3863.28 569.24,3860.28 574.39,3853.22 565.54,3846.78 561.24,3852.67 553.58,3847.09 548.47,3854.10 556.13,3859.68 558.12,3856.96 562.17,3859.90 550.87,3875.39 546.14,3871.96 548.30,3869.00 541.56,3864.10 536.12,3871.56 543.48,3876.91 536.27,3886.80 528.34,3881.04 523.03,3888.33 530.47,3893.74 532.40,3891.09 536.26,3893.89 524.61,3909.87 527.48,3911.96 525.27,3914.99 518.01,3909.72 512.05,3917.90"/>
    <poly id="199825875" type="building.apartments" color="255,230,230" fill="1" layer="-1.00" shape="452.74,3701.75 458.87,3693.20 451.70,3688.07 453.75,3685.22 456.23,3686.99 463.01,3677.53 454.01,3671.09 448.10,3679.35 416.16,3656.52 419.88,3651.33 411.32,3645.20 406.20,3652.34 402.49,3649.69 394.63,3660.66 402.86,3666.55 407.91,3659.52 411.32,3661.96 409.66,3664.26 417.28,3669.70 445.29,3689.71 442.10,3694.15 452.74,3701.75"/>
    <poly id="199910377" type="building.yes" color="255,230,230" fill="1" layer="-1.00" shape="404.16,4180.61 410.55,4175.96 416.04,4183.47 421.21,4179.72 426.78,4187.35 419.70,4192.49 422.48,4196.28 404.56,4209.31 406.95,4212.57 389.20,4225.48 391.93,4229.22 374.68,4241.76 377.17,4245.18 360.27,4257.45 363.33,4261.66 355.46,4267.38 350.59,4260.68 346.84,4263.41 339.51,4253.36 347.55,4247.53 352.88,4254.83 356.40,4252.27 354.35,4249.47 368.66,4239.07 366.84,4236.58 363.95,4238.68 356.87,4228.99 366.22,4222.19 372.09,4230.22 382.63,4222.56 381.21,4220.62 378.74,4222.42 372.79,4214.29 382.11,4207.50 387.07,4214.27 397.90,4206.38 396.30,4204.20 393.77,4206.04 387.94,4198.09 396.66,4191.73 401.82,4198.77 414.51,4189.51 411.42,4185.30 408.92,4187.12 404.16,4180.61"/>
    <poly id="199910378" type="building.yes" color="255,230,230" fill="1" layer="-1.00" shape="435.54,4175.37 427.96,4164.26 432.35,4161.28 427.19,4153.72 435.39,4148.14 438.94,4153.35 447.05,4147.85 452.61,4156.01 444.09,4161.81 442.17,4159.00 438.92,4161.22 444.44,4169.32 435.54,4175.37"/>
    <poly id="204236569" type="building.yes" color="255,230,230" fill="1" layer="-1.00" shape="479.23,3558.15 471.68,3552.79 464.09,3562.35 467.04,3564.76 462.07,3572.04 470.26,3578.00 473.67,3573.58 504.53,3596.27 501.82,3599.03 530.62,3620.40 532.88,3617.46 559.35,3636.29 557.05,3640.00 567.70,3647.48 573.39,3639.50 566.46,3634.17 568.58,3631.07 571.10,3632.71 577.42,3624.30 569.46,3618.16 562.98,3626.56 541.88,3610.55 546.78,3603.31 539.10,3597.48 533.43,3605.00 535.48,3606.92 533.51,3610.18 510.91,3593.50 513.03,3590.55 515.84,3592.50 521.22,3584.52 513.54,3578.85 507.88,3586.06 479.37,3565.16 477.29,3567.50 474.32,3565.54 479.23,3558.15"/>
    <poly id="204237012" type="building.yes" color="255,230,230" fill="1" layer="-1.00" shape="487.11,3552.41 494.57,3542.23 498.43,3544.68 514.81,3522.57 511.27,3519.98 526.20,3499.48 529.90,3502.07 534.94,3494.99 543.07,3500.83 539.82,3505.41 555.32,3516.90 549.16,3525.16 533.66,3513.66 535.46,3511.00 532.36,3508.58 521.81,3523.04 524.61,3525.29 526.39,3522.78 534.24,3528.00 528.40,3535.96 521.62,3530.79 508.78,3548.50 523.70,3559.50 517.84,3567.77 502.34,3556.13 503.82,3553.91 500.55,3551.78 495.52,3558.71 487.11,3552.41"/>
    <poly id="204237490" type="building.yes" color="255,230,230" fill="1" layer="-1.00" shape="584.51,3560.52 592.65,3566.21 597.70,3558.97 600.94,3561.55 599.14,3564.37 606.98,3569.73 612.98,3561.78 605.75,3556.13 627.34,3526.63 634.59,3531.83 640.57,3524.18 633.04,3518.67 631.10,3521.01 628.15,3518.75 633.04,3511.67 624.78,3505.36 617.47,3515.39 621.16,3518.14 595.38,3552.78 591.98,3550.19 584.51,3560.52"/>
    <poly id="204237865" type="building.yes" color="255,230,230" fill="1" layer="-1.00" shape="673.26,3533.38 665.95,3543.42 662.10,3540.81 640.30,3571.52 643.24,3574.08 630.73,3591.49 634.41,3594.40 622.05,3611.81 634.58,3621.50 628.57,3629.76 613.52,3618.29 610.61,3622.12 600.45,3613.90 606.11,3606.55 613.53,3611.44 615.80,3608.34 612.84,3606.23 623.70,3591.64 620.76,3589.22 618.82,3591.58 610.85,3585.59 616.55,3577.62 624.24,3582.99 632.84,3571.33 629.74,3568.91 628.12,3571.13 619.97,3565.59 625.82,3557.63 633.51,3562.99 652.03,3537.47 644.94,3532.13 650.95,3523.88 658.34,3529.38 656.54,3531.89 660.10,3534.33 665.13,3527.39 673.26,3533.38"/>
    <poly id="204237911" type="building.yes" color="255,230,230" fill="1" layer="-1.00" shape="582.01,3644.61 592.66,3652.23 595.26,3648.38 625.67,3671.20 623.37,3674.90 634.32,3682.55 639.88,3674.26 632.62,3669.23 634.74,3666.28 637.40,3668.07 642.78,3660.39 635.11,3654.42 629.60,3661.63 603.78,3642.07 609.64,3633.80 601.66,3627.96 595.50,3636.22 597.84,3638.31 595.26,3641.54 588.17,3636.35 582.01,3644.61"/>
    <poly id="204237948" type="building.yes" color="255,230,230" fill="1" layer="-1.00" shape="652.65,3623.21 642.32,3615.61 636.45,3624.02 643.85,3629.22 641.57,3632.47 638.90,3630.68 633.39,3638.05 641.36,3644.03 646.85,3637.12 656.17,3643.62 651.11,3651.31 658.78,3656.98 664.31,3649.31 661.66,3647.36 664.08,3644.13 671.49,3649.02 677.19,3641.05 667.30,3633.61 664.70,3637.15 650.21,3626.76 652.65,3623.21"/>
    <poly id="204237975" type="building.yes" color="255,230,230" fill="1" layer="-1.00" shape="662.49,3690.34 673.14,3698.11 675.90,3694.28 706.79,3716.35 703.73,3720.18 714.67,3727.96 720.21,3719.99 712.69,3714.18 715.42,3710.95 717.93,3712.89 723.29,3705.36 714.87,3699.36 709.68,3706.28 684.40,3688.11 689.32,3680.57 681.05,3674.26 675.38,3681.92 678.64,3684.05 675.89,3687.58 668.50,3682.23 662.49,3690.34"/>
    <poly id="204237998" type="building.yes" color="255,230,230" fill="1" layer="-1.00" shape="683.17,3664.31 691.44,3670.46 696.51,3662.77 700.05,3665.51 698.09,3668.31 728.97,3690.84 726.05,3694.83 736.55,3702.14 742.55,3694.19 735.91,3689.02 738.03,3685.91 740.40,3687.70 754.55,3667.62 746.62,3660.87 732.16,3680.94 704.39,3660.37 707.50,3655.64 699.38,3649.49 694.34,3656.58 690.50,3653.82 683.17,3664.31"/>
    <poly id="204238085" type="building.yes" color="255,230,230" fill="1" layer="-1.00" shape="728.71,3738.03 742.59,3748.39 744.86,3745.13 743.10,3743.70 758.96,3723.08 763.97,3726.96 766.57,3723.26 761.27,3719.07 772.31,3704.03 773.92,3705.62 777.96,3700.47 764.07,3690.27 728.71,3738.03"/>
    <poly id="204238096" type="building.yes" color="255,230,230" fill="1" layer="-1.00" shape="772.02,3679.50 786.17,3690.64 788.28,3687.84 786.52,3686.24 809.55,3658.64 814.98,3663.44 818.04,3659.77 813.21,3655.14 831.22,3634.17 832.55,3635.14 836.73,3630.45 823.81,3619.07 772.02,3679.50"/>
    <poly id="204238177" type="building.yes" color="255,230,230" fill="1" layer="-1.00" shape="705.49,3539.08 697.32,3548.01 700.99,3551.21 695.21,3557.80 702.85,3564.23 706.39,3560.13 719.76,3571.68 716.36,3576.10 724.32,3582.39 729.79,3575.94 733.16,3578.98 741.50,3569.76 733.72,3562.87 727.63,3569.60 724.98,3567.35 727.08,3564.85 713.14,3552.21 710.59,3554.68 707.50,3552.26 713.29,3545.51 705.49,3539.08"/>
    <poly id="204238666" type="building.yes" color="255,230,230" fill="1" layer="-1.00" shape="763.51,3568.75 768.66,3572.93 770.08,3571.78 791.43,3589.17 786.92,3594.45 790.61,3597.35 794.59,3593.57 814.59,3610.29 813.47,3611.46 817.00,3614.36 827.17,3601.86 773.82,3556.27 763.51,3568.75"/>
    <poly id="204238704" type="building.yes" color="255,230,230" fill="1" layer="-1.00" shape="750.65,3576.71 742.43,3586.55 745.96,3589.43 740.31,3596.50 747.97,3602.77 751.82,3598.52 779.03,3621.05 757.34,3645.97 753.67,3642.76 745.58,3653.22 753.53,3659.80 759.17,3652.91 762.26,3655.47 760.33,3657.68 767.38,3663.77 773.95,3656.61 767.21,3650.36 786.69,3627.33 784.04,3625.23 786.91,3622.31 793.83,3627.95 800.44,3619.87 790.60,3611.36 787.39,3614.87 758.13,3590.28 755.87,3592.93 753.09,3590.52 758.43,3583.44 750.65,3576.71"/>
    <poly id="204239073" type="building.yes" color="255,230,230" fill="1" layer="-1.00" shape="676.89,3585.77 672.92,3571.89 682.52,3568.66 686.79,3582.55 676.89,3585.77"/>
    <poly id="204239586" type="leisure.playground" color="207,245,201" fill="1" layer="-2.00" shape="494.48,3668.76 504.20,3676.33 518.65,3674.10 526.80,3661.80 511.93,3653.69 507.36,3660.50 499.65,3662.30 494.48,3668.76"/>